1
9
.tran 500n 101m 100m
1
1
Net-(C1-Pad1)
V
