.model 2SK303 NJF (Beta=6m Rs=25.61 Rd=25.61 Betatce=-.5 Lambda=3.8m Vto=-0.73 Vtotc=-2.5m Cgd=3.336p M=.3333 Pb=1 Fc=.5 Cgs=3.5p Isr=174.9p Nr=2 Is=17.49p N=1 Xti=3 Alpha=10u Vk=100 Kf=1E-18 Af=1) 
