1
1
.ac dec 100 1k 100Meg
2
9
Net-(Q1-Pad1)
V
5
Net-(Q1-Pad1)
V
