1
2
.dc V3 0 6 50m V4 0 -4 -100m
41
2
V3
I
2
V3
I
2
V3
I
2
V3
I
2
V3
I
2
V3
I
2
V3
I
2
V3
I
2
V3
I
2
V3
I
2
V3
I
2
V3
I
2
V3
I
2
V3
I
2
V3
I
2
V3
I
2
V3
I
2
V3
I
2
V3
I
2
V3
I
2
V3
I
2
V3
I
2
V3
I
2
V3
I
2
V3
I
2
V3
I
2
V3
I
2
V3
I
2
V3
I
2
V3
I
2
V3
I
2
V3
I
2
V3
I
2
V3
I
2
V3
I
2
V3
I
2
V3
I
2
V3
I
2
V3
I
2
V3
I
2
V3
I
